
*****
***** Welcome to the Xyce(TM) Parallel Electronic Simulator
*****
***** This is version Xyce DEVELOPMENT-202409220015-(Public_Release-7.8.0-128-g5b74b0d5)-opensource
***** Date: Sun Jul 20 02:12:55 CEST 2025


***** Executing netlist /ALL/Xschem/LC_VCO/measuremenst_and_test_of_idas/simulation/VCO_LC__TB_05_ac_lv_nmosSW_mostt.spice

***** Reading and parsing netlist...
Netlist warning in file
 /home/ich/share/pdk/dev/IHP-Open-PDK/ihp-sg13g2/libs.tech/xyce/models/sg13g2_bondpad.lib
 at or near line 22
 Unrecognized dot line will be ignored
Netlist warning in file
 /home/ich/share/pdk/dev/IHP-Open-PDK/ihp-sg13g2/libs.tech/xyce/models/sg13g2_moslv_parm.lib
 at or near line 61
 No model parameter MUNQSO found for model SG13G2_LV_NMOS_PSP of type
 PSP103_VA, parameter ignored.
Netlist warning in file
 /home/ich/share/pdk/dev/IHP-Open-PDK/ihp-sg13g2/libs.tech/xyce/models/sg13g2_moslv_parm.lib
 at or near line 61
 No model parameter SWNQS found for model SG13G2_LV_NMOS_PSP of type
 PSP103_VA, parameter ignored.
***** Setting up topology...

***** Device Count Summary ...
       C level 1 (Capacitor)                   57
       D level 1,2 (Diode)                      4
       I level 1 (Independent Current Source)   8
       L level 1 (Inductor)                     8
       PSP103_VA level 1 (ADMS PSP103_VA)      27
       R level 1 (Resistor)                   105
       V level 1 (Independent Voltage Source)  16
       ------------------------------------------
       Total Devices                          225
***** Setting up matrix structure...
***** Number of Unknowns = 256
***** Initializing...

------------------------------------------------------------
Operating point information:
Number of ADMS PSP103_VA models: 27
          name XM10:SG13G2_LV_NMOS_PSPXM11:SG13G2_LV_NMOS_PSPXM12:SG13G2_LV_NMOS_PSPXM13:SG13G2_LV_NMOS_PSPXM14:SG13G2_LV_NMOS_PSPXM15:SG13G2_LV_NMOS_PSPXM16:SG13G2_LV_NMOS_PSP
XM17:SG13G2_LV_NMOS_PSPXM18:SG13G2_LV_NMOS_PSPXM19:SG13G2_LV_NMOS_PSPXM1:SG13G2_LV_NMOS_PSPXM20:SG13G2_LV_NMOS_PSPXM21:SG13G2_LV_NMOS_PSPXM2:SG13G2_LV_NMOS_PSPXM31:SG13G2_LV_NMOS_PSP
XM3:SG13G2_LV_NMOS_PSPXM43:SG13G2_LV_NMOS_PSPXM44:SG13G2_LV_NMOS_PSPXM47:SG13G2_LV_NMOS_PSPXM4:SG13G2_LV_NMOS_PSPXM5:SG13G2_LV_NMOS_PSPXM6:SG13G2_LV_NMOS_PSPXM7:SG13G2_LV_NMOS_PSP
XM88:SG13G2_LV_NMOS_PSPXM89:SG13G2_LV_NMOS_PSPXM8:SG13G2_LV_NMOS_PSPXM9:SG13G2_LV_NMOS_PSP
          type       PSP103_VA      PSP103_VA      PSP103_VA      PSP103_VA      PSP103_VA      PSP103_VA      PSP103_VA
      PSP103_VA      PSP103_VA      PSP103_VA      PSP103_VA      PSP103_VA      PSP103_VA      PSP103_VA      PSP103_VA
      PSP103_VA      PSP103_VA      PSP103_VA      PSP103_VA      PSP103_VA      PSP103_VA      PSP103_VA      PSP103_VA
      PSP103_VA      PSP103_VA      PSP103_VA      PSP103_VA
         level               1              1              1              1              1              1              1
              1              1              1              1              1              1              1              1
              1              1              1              1              1              1              1              1
              1              1              1              1
            DTA              0              0              0              0              0              0              0              0              0              0              0              0              0              0              0              0              0              0              0              0              0              0              0              0              0              0              0
         FJUNQD           0.03           0.03           0.03           0.03           0.03           0.03           0.03           0.03           0.03           0.03           0.03           0.03           0.03           0.03           0.03           0.03           0.03           0.03           0.03           0.03           0.03           0.03           0.03           0.03           0.03           0.03           0.03
       VJUNREFD            2.5            2.5            2.5            2.5            2.5            2.5            2.5            2.5            2.5            2.5            2.5            2.5            2.5            2.5            2.5            2.5            2.5            2.5            2.5            2.5            2.5            2.5            2.5            2.5            2.5            2.5            2.5
          FJUNQ           0.03           0.03           0.03           0.03           0.03           0.03           0.03           0.03           0.03           0.03           0.03           0.03           0.03           0.03           0.03           0.03           0.03           0.03           0.03           0.03           0.03           0.03           0.03           0.03           0.03           0.03           0.03
       SWJUNEXP              0              0              0              0              0              0              0              0              0              0              0              0              0              0              0              0              0              0              0              0              0              0              0              0              0              0              0

        PBRSTID              4              4              4              4              4              4              4              4              4              4              4              4              4              4              4              4              4              4              4              4              4              4              4              4              4              4              4
        PBRBOTD              4              4              4              4              4              4              4              4              4              4              4              4              4              4              4              4              4              4              4              4              4              4              4              4              4              4              4
        VBRGATD             10             10             10             10             10             10             10             10             10             10             10             10             10             10             10             10             10             10             10             10             10             10             10             10             10             10             10
        VBRSTID             10             10             10             10             10             10             10             10             10             10             10             10             10             10             10             10             10             10             10             10             10             10             10             10             10             10             10
        VBRBOTD             10             10             10             10             10             10             10             10             10             10             10             10             10             10             10             10             10             10             10             10             10             10             10             10             10             10             10
     STFBBTSTID         -0.001         -0.001         -0.001         -0.001         -0.001         -0.001         -0.001         -0.001         -0.001         -0.001         -0.001         -0.001         -0.001         -0.001         -0.001         -0.001         -0.001         -0.001         -0.001         -0.001         -0.001         -0.001         -0.001         -0.001         -0.001         -0.001         -0.001
     STFBBTBOTD         -0.001         -0.001         -0.001         -0.001         -0.001         -0.001         -0.001         -0.001         -0.001         -0.001         -0.001         -0.001         -0.001         -0.001         -0.001         -0.001         -0.001         -0.001         -0.001         -0.001         -0.001         -0.001         -0.001         -0.001         -0.001         -0.001         -0.001
      FBBTRSTID          1e+09          1e+09          1e+09          1e+09          1e+09          1e+09          1e+09          1e+09          1e+09          1e+09          1e+09          1e+09          1e+09          1e+09          1e+09          1e+09          1e+09          1e+09          1e+09          1e+09          1e+09          1e+09          1e+09          1e+09          1e+09          1e+09          1e+09

      FBBTRBOTD          1e+09          1e+09          1e+09          1e+09          1e+09          1e+09          1e+09          1e+09          1e+09          1e+09          1e+09          1e+09          1e+09          1e+09          1e+09          1e+09          1e+09          1e+09          1e+09          1e+09          1e+09          1e+09          1e+09          1e+09          1e+09          1e+09          1e+09
       CBBTSTID          1e-18          1e-18          1e-18          1e-18          1e-18          1e-18          1e-18          1e-18          1e-18          1e-18          1e-18          1e-18          1e-18          1e-18          1e-18          1e-18          1e-18          1e-18          1e-18          1e-18          1e-18          1e-18          1e-18          1e-18          1e-18          1e-18          1e-18
       CBBTBOTD          1e-12          1e-12          1e-12          1e-12          1e-12          1e-12          1e-12          1e-12          1e-12          1e-12          1e-12          1e-12          1e-12          1e-12          1e-12          1e-12          1e-12          1e-12          1e-12          1e-12          1e-12          1e-12          1e-12          1e-12          1e-12          1e-12          1e-12
    MEFFTATGATD           0.25           0.25           0.25           0.25           0.25           0.25           0.25           0.25           0.25           0.25           0.25           0.25           0.25           0.25           0.25           0.25           0.25           0.25           0.25           0.25           0.25           0.25           0.25           0.25           0.25           0.25           0.25
       CTATGATD         0.0001         0.0001         0.0001         0.0001         0.0001         0.0001         0.0001         0.0001         0.0001         0.0001         0.0001         0.0001         0.0001         0.0001         0.0001         0.0001         0.0001         0.0001         0.0001         0.0001         0.0001         0.0001         0.0001         0.0001         0.0001         0.0001         0.0001
       CTATSTID         0.0001         0.0001         0.0001         0.0001         0.0001         0.0001         0.0001         0.0001         0.0001         0.0001         0.0001         0.0001         0.0001         0.0001         0.0001         0.0001         0.0001         0.0001         0.0001         0.0001         0.0001         0.0001         0.0001         0.0001         0.0001         0.0001         0.0001
       XJUNGATD          1e-07          1e-07          1e-07          1e-07          1e-07          1e-07          1e-07          1e-07          1e-07          1e-07          1e-07          1e-07          1e-07          1e-07          1e-07          1e-07          1e-07          1e-07          1e-07          1e-07          1e-07          1e-07          1e-07          1e-07          1e-07          1e-07          1e-07
       XJUNSTID          1e-07          1e-07          1e-07          1e-07          1e-07          1e-07          1e-07          1e-07          1e-07          1e-07          1e-07          1e-07          1e-07          1e-07          1e-07          1e-07          1e-07          1e-07          1e-07          1e-07          1e-07          1e-07          1e-07          1e-07          1e-07          1e-07          1e-07

       CSRHGATD         0.0001         0.0001         0.0001         0.0001         0.0001         0.0001         0.0001         0.0001         0.0001         0.0001         0.0001         0.0001         0.0001         0.0001         0.0001         0.0001         0.0001         0.0001         0.0001         0.0001         0.0001         0.0001         0.0001         0.0001         0.0001         0.0001         0.0001
     IDSATRGATD          1e-18          1e-18          1e-18          1e-18          1e-18          1e-18          1e-18          1e-18          1e-18          1e-18          1e-18          1e-18          1e-18          1e-18          1e-18          1e-18          1e-18          1e-18          1e-18          1e-18          1e-18          1e-18          1e-18          1e-18          1e-18          1e-18          1e-18
       PHIGSTID           1.16           1.16           1.16           1.16           1.16           1.16           1.16           1.16           1.16           1.16           1.16           1.16           1.16           1.16           1.16           1.16           1.16           1.16           1.16           1.16           1.16           1.16           1.16           1.16           1.16           1.16           1.16
       PHIGBOTD           1.16           1.16           1.16           1.16           1.16           1.16           1.16           1.16           1.16           1.16           1.16           1.16           1.16           1.16           1.16           1.16           1.16           1.16           1.16           1.16           1.16           1.16           1.16           1.16           1.16           1.16           1.16
          PGATD            0.5            0.5            0.5            0.5            0.5            0.5            0.5            0.5            0.5            0.5            0.5            0.5            0.5            0.5            0.5            0.5            0.5            0.5            0.5            0.5            0.5            0.5            0.5            0.5            0.5            0.5            0.5
       VBIRGATD              1              1              1              1              1              1              1              1              1              1              1              1              1              1              1              1              1              1              1              1              1              1              1              1              1              1              1
       VBIRSTID              1              1              1              1              1              1              1              1              1              1              1              1              1              1              1              1              1              1              1              1              1              1              1              1              1              1              1
       CJORGATD          1e-09          1e-09          1e-09          1e-09          1e-09          1e-09          1e-09          1e-09          1e-09          1e-09          1e-09          1e-09          1e-09          1e-09          1e-09          1e-09          1e-09          1e-09          1e-09          1e-09          1e-09          1e-09          1e-09          1e-09          1e-09          1e-09          1e-09

       CJORSTID          1e-09          1e-09          1e-09          1e-09          1e-09          1e-09          1e-09          1e-09          1e-09          1e-09          1e-09          1e-09          1e-09          1e-09          1e-09          1e-09          1e-09          1e-09          1e-09          1e-09          1e-09          1e-09          1e-09          1e-09          1e-09          1e-09          1e-09
       CJORBOTD          0.001          0.001          0.001          0.001          0.001          0.001          0.001          0.001          0.001          0.001          0.001          0.001          0.001          0.001          0.001          0.001          0.001          0.001          0.001          0.001          0.001          0.001          0.001          0.001          0.001          0.001          0.001
         PBRGAT              4              4              4              4              4              4              4              4              4              4              4              4              4              4              4              4              4              4              4              4              4              4              4              4              4              4              4
         PBRSTI              4              4              4              4              4              4              4              4              4              4              4              4              4              4              4              4              4              4              4              4              4              4              4              4              4              4              4
       CBBTGATD          1e-18          1e-18          1e-18          1e-18          1e-18          1e-18          1e-18          1e-18          1e-18          1e-18          1e-18          1e-18          1e-18          1e-18          1e-18          1e-18          1e-18          1e-18          1e-18          1e-18          1e-18          1e-18          1e-18          1e-18          1e-18          1e-18          1e-18
         PBRBOT              4              4              4              4              4              4              4              4              4              4              4              4              4              4              4              4              4              4              4              4              4              4              4              4              4              4              4
         VBRSTI             10             10             10             10             10             10             10             10             10             10             10             10             10             10             10             10             10             10             10             10             10             10             10             10             10             10             10
         VBRBOT             10             10             10             10             10             10             10             10             10             10             10             10             10             10             10             10             10             10             10             10             10             10             10             10             10             10             10

      STFBBTSTI         -0.001         -0.001         -0.001         -0.001         -0.001         -0.001         -0.001         -0.001         -0.001         -0.001         -0.001         -0.001         -0.001         -0.001         -0.001         -0.001         -0.001         -0.001         -0.001         -0.001         -0.001         -0.001         -0.001         -0.001         -0.001         -0.001         -0.001
      STFBBTBOT         -0.001         -0.001         -0.001         -0.001         -0.001         -0.001         -0.001         -0.001         -0.001         -0.001         -0.001         -0.001         -0.001         -0.001         -0.001         -0.001         -0.001         -0.001         -0.001         -0.001         -0.001         -0.001         -0.001         -0.001         -0.001         -0.001         -0.001
       FBBTRGAT          1e+09          1e+09          1e+09          1e+09          1e+09          1e+09          1e+09          1e+09          1e+09          1e+09          1e+09          1e+09          1e+09          1e+09          1e+09          1e+09          1e+09          1e+09          1e+09          1e+09          1e+09          1e+09          1e+09          1e+09          1e+09          1e+09          1e+09
        CBBTBOT          1e-12          1e-12          1e-12          1e-12          1e-12          1e-12          1e-12          1e-12          1e-12          1e-12          1e-12          1e-12          1e-12          1e-12          1e-12          1e-12          1e-12          1e-12          1e-12          1e-12          1e-12          1e-12          1e-12          1e-12          1e-12          1e-12          1e-12
     MEFFTATGAT           0.25           0.25           0.25           0.25           0.25           0.25           0.25           0.25           0.25           0.25           0.25           0.25           0.25           0.25           0.25           0.25           0.25           0.25           0.25           0.25           0.25           0.25           0.25           0.25           0.25           0.25           0.25
     MEFFTATSTI          3.364          3.364          3.364          3.364          3.364          3.364          3.364          3.364          3.364          3.364          3.364          3.364          3.364          3.364          3.364          3.364          3.364          3.364          3.364          3.364          3.364          3.364          3.364          3.364          3.364          3.364          3.364
     MEFFTATBOT          5.204          5.204          5.204          5.204          5.204          5.204          5.204          5.204          5.204          5.204          5.204          5.204          5.204          5.204          5.204          5.204          5.204          5.204          5.204          5.204          5.204          5.204          5.204          5.204          5.204          5.204          5.204
        CTATGAT         0.0001         0.0001         0.0001         0.0001         0.0001         0.0001         0.0001         0.0001         0.0001         0.0001         0.0001         0.0001         0.0001         0.0001         0.0001         0.0001         0.0001         0.0001         0.0001         0.0001         0.0001         0.0001         0.0001         0.0001         0.0001         0.0001         0.0001

        CTATBOT            100            100            100            100            100            100            100            100            100            100            100            100            100            100            100            100            100            100            100            100            100            100            100            100            100            100            100
        CSRHSTI         0.0001         0.0001         0.0001         0.0001         0.0001         0.0001         0.0001         0.0001         0.0001         0.0001         0.0001         0.0001         0.0001         0.0001         0.0001         0.0001         0.0001         0.0001         0.0001         0.0001         0.0001         0.0001         0.0001         0.0001         0.0001         0.0001         0.0001
      IDSATRSTI     1.9278e-15     1.9278e-15     1.9278e-15     1.9278e-15     1.9278e-15     1.9278e-15     1.9278e-15     1.9278e-15     1.9278e-15     1.9278e-15     1.9278e-15     1.9278e-15     1.9278e-15     1.9278e-15     1.9278e-15     1.9278e-15     1.9278e-15     1.9278e-15     1.9278e-15     1.9278e-15     1.9278e-15     1.9278e-15     1.9278e-15     1.9278e-15     1.9278e-15     1.9278e-15     1.9278e-15
           PSTI        0.27362        0.27362        0.27362        0.27362        0.27362        0.27362        0.27362        0.27362        0.27362        0.27362        0.27362        0.27362        0.27362        0.27362        0.27362        0.27362        0.27362        0.27362        0.27362        0.27362        0.27362        0.27362        0.27362        0.27362        0.27362        0.27362        0.27362
           PBOT        0.31309        0.31309        0.31309        0.31309        0.31309        0.31309        0.31309        0.31309        0.31309        0.31309        0.31309        0.31309        0.31309        0.31309        0.31309        0.31309        0.31309        0.31309        0.31309        0.31309        0.31309        0.31309        0.31309        0.31309        0.31309        0.31309        0.31309
        VBIRSTI        0.79368        0.79368        0.79368        0.79368        0.79368        0.79368        0.79368        0.79368        0.79368        0.79368        0.79368        0.79368        0.79368        0.79368        0.79368        0.79368        0.79368        0.79368        0.79368        0.79368        0.79368        0.79368        0.79368        0.79368        0.79368        0.79368        0.79368
        VBIRBOT        0.70829        0.70829        0.70829        0.70829        0.70829        0.70829        0.70829        0.70829        0.70829        0.70829        0.70829        0.70829        0.70829        0.70829        0.70829        0.70829        0.70829        0.70829        0.70829        0.70829        0.70829        0.70829        0.70829        0.70829        0.70829        0.70829        0.70829
        CJORGAT          3e-11          3e-11          3e-11          3e-11          3e-11          3e-11          3e-11          3e-11          3e-11          3e-11          3e-11          3e-11          3e-11          3e-11          3e-11          3e-11          3e-11          3e-11          3e-11          3e-11          3e-11          3e-11          3e-11          3e-11          3e-11          3e-11          3e-11

            TRJ             21             21             21             21             21             21             21             21             21             21             21             21             21             21             21             21             21             21             21             21             21             21             21             21             21             21             21
           IMAX      0.0015358      0.0015358      0.0015358      0.0015358      0.0015358      0.0015358      0.0015358      0.0015358      0.0015358      0.0015358      0.0015358      0.0015358      0.0015358      0.0015358      0.0015358      0.0015358      0.0015358      0.0015358      0.0015358      0.0015358      0.0015358      0.0015358      0.0015358      0.0015358      0.0015358      0.0015358      0.0015358
        LODETAO              1              1              1              1              1              1              1              1              1              1              1              1              1              1              1              1              1              1              1              1              1              1              1              1              1              1              1
     IDSATRSTID          1e-18          1e-18          1e-18          1e-18          1e-18          1e-18          1e-18          1e-18          1e-18          1e-18          1e-18          1e-18          1e-18          1e-18          1e-18          1e-18          1e-18          1e-18          1e-18          1e-18          1e-18          1e-18          1e-18          1e-18          1e-18          1e-18          1e-18
         STETAO              0              0              0              0              0              0              0              0              0              0              0              0              0              0              0              0              0              0              0              0              0              0              0              0              0              0              0
        WLODVTH              0              0              0              0              0              0              0              0              0              0              0              0              0              0              0              0              0              0              0              0              0              0              0              0              0              0              0
        LLODVTH              0              0              0              0              0              0              0              0              0              0              0              0              0              0              0              0              0              0              0              0              0              0              0              0              0              0              0
        CJORBOT     0.00097636     0.00097636     0.00097636     0.00097636     0.00097636     0.00097636     0.00097636     0.00097636     0.00097636     0.00097636     0.00097636     0.00097636     0.00097636     0.00097636     0.00097636     0.00097636     0.00097636     0.00097636     0.00097636     0.00097636     0.00097636     0.00097636     0.00097636     0.00097636     0.00097636     0.00097636     0.00097636

         WKVTHO              0              0              0              0              0              0              0              0              0              0              0              0              0              0              0              0              0              0              0              0              0              0              0              0              0              0              0
         LKVTHO              0              0              0              0              0              0              0              0              0              0              0              0              0              0              0              0              0              0              0              0              0              0              0              0              0              0              0
     STFBBTGATD         -0.001         -0.001         -0.001         -0.001         -0.001         -0.001         -0.001         -0.001         -0.001         -0.001         -0.001         -0.001         -0.001         -0.001         -0.001         -0.001         -0.001         -0.001         -0.001         -0.001         -0.001         -0.001         -0.001         -0.001         -0.001         -0.001         -0.001
          KVTHO              0              0              0              0              0              0              0              0              0              0              0              0              0              0              0              0              0              0              0              0              0              0              0              0              0              0              0
        WLODKUO              0              0              0              0              0              0              0              0              0              0              0              0              0              0              0              0              0              0              0              0              0              0              0              0              0              0              0
           WKUO              0              0              0              0              0              0              0              0              0              0              0              0              0              0              0              0              0              0              0              0              0              0              0              0              0              0              0
           LKUO              0              0              0              0              0              0              0              0              0              0              0              0              0              0              0              0              0              0              0              0              0              0              0              0              0              0              0
           TKUO              0              0              0              0              0              0              0              0              0              0              0              0              0              0              0              0              0              0              0              0              0              0              0              0              0              0              0

           WLOD              0              0              0              0              0              0              0              0              0              0              0              0              0              0              0              0              0              0              0              0              0              0              0              0              0              0              0
          SBREF          1e-06          1e-06          1e-06          1e-06          1e-06          1e-06          1e-06          1e-06          1e-06          1e-06          1e-06          1e-06          1e-06          1e-06          1e-06          1e-06          1e-06          1e-06          1e-06          1e-06          1e-06          1e-06          1e-06          1e-06          1e-06          1e-06          1e-06
          SAREF          1e-06          1e-06          1e-06          1e-06          1e-06          1e-06          1e-06          1e-06          1e-06          1e-06          1e-06          1e-06          1e-06          1e-06          1e-06          1e-06          1e-06          1e-06          1e-06          1e-06          1e-06          1e-06          1e-06          1e-06          1e-06          1e-06          1e-06
         RJUNDO              0              0              0              0              0              0              0              0              0              0              0              0              0              0              0              0              0              0              0              0              0              0              0              0              0              0              0
         RJUNSO              0              0              0              0              0              0              0              0              0              0              0              0              0              0              0              0              0              0              0              0              0              0              0              0              0              0              0
         RWELLO              0              0              0              0              0              0              0              0              0              0              0              0              0              0              0              0              0              0              0              0              0              0              0              0              0              0              0
          DLSIL              0              0              0              0              0              0              0              0              0              0              0              0              0              0              0              0              0              0              0              0              0              0              0              0              0              0              0
           RSHG              0              0              0              0              0              0              0              0              0              0              0              0              0              0              0              0              0              0              0              0              0              0              0              0              0              0              0

           RINT     1.3025e-11     1.3025e-11     1.3025e-11     1.3025e-11     1.3025e-11     1.3025e-11     1.3025e-11     1.3025e-11     1.3025e-11     1.3025e-11     1.3025e-11     1.3025e-11     1.3025e-11     1.3025e-11     1.3025e-11     1.3025e-11     1.3025e-11     1.3025e-11     1.3025e-11     1.3025e-11     1.3025e-11     1.3025e-11     1.3025e-11     1.3025e-11     1.3025e-11     1.3025e-11     1.3025e-11
            RGO              0              0              0              0              0              0              0              0              0              0              0              0              0              0              0              0              0              0              0              0              0              0              0              0              0              0              0
         KUOWEL              0              0              0              0              0              0              0              0              0              0              0              0              0              0              0              0              0              0              0              0              0              0              0              0              0              0              0
         KUOWEO              0              0              0              0              0              0              0              0              0              0              0              0              0              0              0              0              0              0              0              0              0              0              0              0              0              0              0
      KVTHOWELW              0              0              0              0              0              0              0              0              0              0              0              0              0              0              0              0              0              0              0              0              0              0              0              0              0              0              0
       KVTHOWEO              0              0              0              0              0              0              0              0              0              0              0              0              0              0              0              0              0              0              0              0              0              0              0              0              0              0              0
        EFEDGEO              1              1              1              1              1              1              1              1              1              1              1              1              1              1              1              1              1              1              1              1              1              1              1              1              1              1              1
      NFCEDGELW              0              0              0              0              0              0              0              0              0              0              0              0              0              0              0              0              0              0              0              0              0              0              0              0              0              0              0

      NFAEDGELW          8e+22          8e+22          8e+22          8e+22          8e+22          8e+22          8e+22          8e+22          8e+22          8e+22          8e+22          8e+22          8e+22          8e+22          8e+22          8e+22          8e+22          8e+22          8e+22          8e+22          8e+22          8e+22          8e+22          8e+22          8e+22          8e+22          8e+22
       FNTEDGEO              1              1              1              1              1              1              1              1              1              1              1              1              1              1              1              1              1              1              1              1              1              1              1              1              1              1              1
      PSCEEDGEW              0              0              0              0              0              0              0              0              0              0              0              0              0              0              0              0              0              0              0              0              0              0              0              0              0              0              0
           RSHD              0              0              0              0              0              0              0              0              0              0              0              0              0              0              0              0              0              0              0              0              0              0              0              0              0              0              0
   PSCEEDGELEXP              2              2              2              2              2              2              2              2              2              2              2              2              2              2              2              2              2              2              2              2              2              2              2              2              2              2              2
     STBETEDGEW              0              0              0              0              0              0              0              0              0              0              0              0              0              0              0              0              0              0              0              0              0              0              0              0              0              0              0
       BETEDGEW              0              0              0              0              0              0              0              0              0              0              0              0              0              0              0              0              0              0              0              0              0              0              0              0              0              0              0
        CTEDGEL              0              0              0              0              0              0              0              0              0              0              0              0              0              0              0              0              0              0              0              0              0              0              0              0              0              0              0

        CTEDGEO              0              0              0              0              0              0              0              0              0              0              0              0              0              0              0              0              0              0              0              0              0              0              0              0              0              0              0
      NSUBEDGEO          5e+23          5e+23          5e+23          5e+23          5e+23          5e+23          5e+23          5e+23          5e+23          5e+23          5e+23          5e+23          5e+23          5e+23          5e+23          5e+23          5e+23          5e+23          5e+23          5e+23          5e+23          5e+23          5e+23          5e+23          5e+23          5e+23          5e+23
        PHIGGAT           1.16           1.16           1.16           1.16           1.16           1.16           1.16           1.16           1.16           1.16           1.16           1.16           1.16           1.16           1.16           1.16           1.16           1.16           1.16           1.16           1.16           1.16           1.16           1.16           1.16           1.16           1.16
     DPHIBEDGEW              0              0              0              0              0              0              0              0              0              0              0              0              0              0              0              0              0              0              0              0              0              0              0              0              0              0              0
     DPHIBEDGEL              0              0              0              0              0              0              0              0              0              0              0              0              0              0              0              0              0              0              0              0              0              0              0              0              0              0              0
         PKVTHO              0              0              0              0              0              0              0              0              0              0              0              0              0              0              0              0              0              0              0              0              0              0              0              0              0              0              0
     DPHIBEDGEO              0              0              0              0              0              0              0              0              0              0              0              0              0              0              0              0              0              0              0              0              0              0              0              0              0              0              0
    STVFBEDGELW              0              0              0              0              0              0              0              0              0              0              0              0              0              0              0              0              0              0              0              0              0              0              0              0              0              0              0

     STVFBEDGEL              0              0              0              0              0              0              0              0              0              0              0              0              0              0              0              0              0              0              0              0              0              0              0              0              0              0              0
          WEDGE          1e-08          1e-08          1e-08          1e-08          1e-08          1e-08          1e-08          1e-08          1e-08          1e-08          1e-08          1e-08          1e-08          1e-08          1e-08          1e-08          1e-08          1e-08          1e-08          1e-08          1e-08          1e-08          1e-08          1e-08          1e-08          1e-08          1e-08
         ALPNOI          1.869          1.869          1.869          1.869          1.869          1.869          1.869          1.869          1.869          1.869          1.869          1.869          1.869          1.869          1.869          1.869          1.869          1.869          1.869          1.869          1.869          1.869          1.869          1.869          1.869          1.869          1.869
        LINTNOI       -3.7e-08       -3.7e-08       -3.7e-08       -3.7e-08       -3.7e-08       -3.7e-08       -3.7e-08       -3.7e-08       -3.7e-08       -3.7e-08       -3.7e-08       -3.7e-08       -3.7e-08       -3.7e-08       -3.7e-08       -3.7e-08       -3.7e-08       -3.7e-08       -3.7e-08       -3.7e-08       -3.7e-08       -3.7e-08       -3.7e-08       -3.7e-08       -3.7e-08       -3.7e-08       -3.7e-08
          NFCLW         -5e-08         -5e-08         -5e-08         -5e-08         -5e-08         -5e-08         -5e-08         -5e-08         -5e-08         -5e-08         -5e-08         -5e-08         -5e-08         -5e-08         -5e-08         -5e-08         -5e-08         -5e-08         -5e-08         -5e-08         -5e-08         -5e-08         -5e-08         -5e-08         -5e-08         -5e-08         -5e-08
          NFALW      7.616e+25      7.616e+25      7.616e+25      7.616e+25      7.616e+25      7.616e+25      7.616e+25      7.616e+25      7.616e+25      7.616e+25      7.616e+25      7.616e+25      7.616e+25      7.616e+25      7.616e+25      7.616e+25      7.616e+25      7.616e+25      7.616e+25      7.616e+25      7.616e+25      7.616e+25      7.616e+25      7.616e+25      7.616e+25      7.616e+25      7.616e+25
        XJUNSTI     1.5783e-07     1.5783e-07     1.5783e-07     1.5783e-07     1.5783e-07     1.5783e-07     1.5783e-07     1.5783e-07     1.5783e-07     1.5783e-07     1.5783e-07     1.5783e-07     1.5783e-07     1.5783e-07     1.5783e-07     1.5783e-07     1.5783e-07     1.5783e-07     1.5783e-07     1.5783e-07     1.5783e-07     1.5783e-07     1.5783e-07     1.5783e-07     1.5783e-07     1.5783e-07     1.5783e-07
        FNTEXCL              0              0              0              0              0              0              0              0              0              0              0              0              0              0              0              0              0              0              0              0              0              0              0              0              0              0              0

       VBIRBOTD              1              1              1              1              1              1              1              1              1              1              1              1              1              1              1              1              1              1              1              1              1              1              1              1              1              1              1
          CFRDW              0              0              0              0              0              0              0              0              0              0              0              0              0              0              0              0              0              0              0              0              0              0              0              0              0              0              0
           CFRW          2e-16          2e-16          2e-16          2e-16          2e-16          2e-16          2e-16          2e-16          2e-16          2e-16          2e-16          2e-16          2e-16          2e-16          2e-16          2e-16          2e-16          2e-16          2e-16          2e-16          2e-16          2e-16          2e-16          2e-16          2e-16          2e-16          2e-16
         CGIDLO        0.06641        0.06641        0.06641        0.06641        0.06641        0.06641        0.06641        0.06641        0.06641        0.06641        0.06641        0.06641        0.06641        0.06641        0.06641        0.06641        0.06641        0.06641        0.06641        0.06641        0.06641        0.06641        0.06641        0.06641        0.06641        0.06641        0.06641
          SCREF          1e-06          1e-06          1e-06          1e-06          1e-06          1e-06          1e-06          1e-06          1e-06          1e-06          1e-06          1e-06          1e-06          1e-06          1e-06          1e-06          1e-06          1e-06          1e-06          1e-06          1e-06          1e-06          1e-06          1e-06          1e-06          1e-06          1e-06
      STBGIDLDO              0              0              0              0              0              0              0              0              0              0              0              0              0              0              0              0              0              0              0              0              0              0              0              0              0              0              0
       STBGIDLO              0              0              0              0              0              0              0              0              0              0              0              0              0              0              0              0              0              0              0              0              0              0              0              0              0              0              0
         BGIDLO          19.92          19.92          19.92          19.92          19.92          19.92          19.92          19.92          19.92          19.92          19.92          19.92          19.92          19.92          19.92          19.92          19.92          19.92          19.92          19.92          19.92          19.92          19.92          19.92          19.92          19.92          19.92

        AGIDLDW              0              0              0              0              0              0              0              0              0              0              0              0              0              0              0              0              0              0              0              0              0              0              0              0              0              0              0
          NFBLW      1.026e+09      1.026e+09      1.026e+09      1.026e+09      1.026e+09      1.026e+09      1.026e+09      1.026e+09      1.026e+09      1.026e+09      1.026e+09      1.026e+09      1.026e+09      1.026e+09      1.026e+09      1.026e+09      1.026e+09      1.026e+09      1.026e+09      1.026e+09      1.026e+09      1.026e+09      1.026e+09      1.026e+09      1.026e+09      1.026e+09      1.026e+09
         AGIDLW       0.001262       0.001262       0.001262       0.001262       0.001262       0.001262       0.001262       0.001262       0.001262       0.001262       0.001262       0.001262       0.001262       0.001262       0.001262       0.001262       0.001262       0.001262       0.001262       0.001262       0.001262       0.001262       0.001262       0.001262       0.001262       0.001262       0.001262
         KUOWEW              0              0              0              0              0              0              0              0              0              0              0              0              0              0              0              0              0              0              0              0              0              0              0              0              0              0              0
           GC2O         0.8413         0.8413         0.8413         0.8413         0.8413         0.8413         0.8413         0.8413         0.8413         0.8413         0.8413         0.8413         0.8413         0.8413         0.8413         0.8413         0.8413         0.8413         0.8413         0.8413         0.8413         0.8413         0.8413         0.8413         0.8413         0.8413         0.8413
          STIGO         2.9949         2.9949         2.9949         2.9949         2.9949         2.9949         2.9949         2.9949         2.9949         2.9949         2.9949         2.9949         2.9949         2.9949         2.9949         2.9949         2.9949         2.9949         2.9949         2.9949         2.9949         2.9949         2.9949         2.9949         2.9949         2.9949         2.9949
         IGOVDW              0              0              0              0              0              0              0              0              0              0              0              0              0              0              0              0              0              0              0              0              0              0              0              0              0              0              0
        IGINVLW         352248         352248         352280         352280         352295         352295         352279         352279         352248         352248         352295         352280         352280         352248         352295         352248         352295         352295         352295         352280         352280         352295         352295         352279         352279         352279         352279

           PKUO              0              0              0              0              0              0              0              0              0              0              0              0              0              0              0              0              0              0              0              0              0              0              0              0              0              0              0
           GCOO             10             10             10             10             10             10             10             10             10             10             10             10             10             10             10             10             10             10             10             10             10             10             10             10             10             10             10
            A4L              0              0              0              0              0              0              0              0              0              0              0              0              0              0              0              0              0              0              0              0              0              0              0              0              0              0              0
            A3O          0.708          0.708          0.708          0.708          0.708          0.708          0.708          0.708          0.708          0.708          0.708          0.708          0.708          0.708          0.708          0.708          0.708          0.708          0.708          0.708          0.708          0.708          0.708          0.708          0.708          0.708          0.708
          STA2O       0.068723       0.068723       0.068723       0.068723       0.068723       0.068723       0.068723       0.068723       0.068723       0.068723       0.068723       0.068723       0.068723       0.068723       0.068723       0.068723       0.068723       0.068723       0.068723       0.068723       0.068723       0.068723       0.068723       0.068723       0.068723       0.068723       0.068723
     NSUBEDGELW              0              0              0              0              0              0              0              0              0              0              0              0              0              0              0              0              0              0              0              0              0              0              0              0              0              0              0
            A2O          17.75          17.75          17.75          17.75          17.75          17.75          17.75          17.75          17.75          17.75          17.75          17.75          17.75          17.75          17.75          17.75          17.75          17.75          17.75          17.75          17.75          17.75          17.75          17.75          17.75          17.75          17.75
            A1W      -0.052179      -0.052179      -0.052179      -0.052179      -0.052179      -0.052179      -0.052179      -0.052179      -0.052179      -0.052179      -0.052179      -0.052179      -0.052179      -0.052179      -0.052179      -0.052179      -0.052179      -0.052179      -0.052179      -0.052179      -0.052179      -0.052179      -0.052179      -0.052179      -0.052179      -0.052179      -0.052179

            A1L       0.052176       0.052176       0.052176       0.052176       0.052176       0.052176       0.052176       0.052176       0.052176       0.052176       0.052176       0.052176       0.052176       0.052176       0.052176       0.052176       0.052176       0.052176       0.052176       0.052176       0.052176       0.052176       0.052176       0.052176       0.052176       0.052176       0.052176
            VPO        0.32224        0.32224        0.32224        0.32224        0.32224        0.32224        0.32224        0.32224        0.32224        0.32224        0.32224        0.32224        0.32224        0.32224        0.32224        0.32224        0.32224        0.32224        0.32224        0.32224        0.32224        0.32224        0.32224        0.32224        0.32224        0.32224        0.32224
         ALP2L2              0              0              0              0              0              0              0              0              0              0              0              0              0              0              0              0              0              0              0              0              0              0              0              0              0              0              0
       ALP1LEXP           0.25           0.25           0.25           0.25           0.25           0.25           0.25           0.25           0.25           0.25           0.25           0.25           0.25           0.25           0.25           0.25           0.25           0.25           0.25           0.25           0.25           0.25           0.25           0.25           0.25           0.25           0.25
         ALP1L1       0.021138       0.021138       0.021138       0.021138       0.021138       0.021138       0.021138       0.021138       0.021138       0.021138       0.021138       0.021138       0.021138       0.021138       0.021138       0.021138       0.021138       0.021138       0.021138       0.021138       0.021138       0.021138       0.021138       0.021138       0.021138       0.021138       0.021138
        ALPLEXP        0.68143        0.68143        0.68143        0.68143        0.68143        0.68143        0.68143        0.68143        0.68143        0.68143        0.68143        0.68143        0.68143        0.68143        0.68143        0.68143        0.68143        0.68143        0.68143        0.68143        0.68143        0.68143        0.68143        0.68143        0.68143        0.68143        0.68143
       THESATBO        0.08213        0.08213        0.08213        0.08213        0.08213        0.08213        0.08213        0.08213        0.08213        0.08213        0.08213        0.08213        0.08213        0.08213        0.08213        0.08213        0.08213        0.08213        0.08213        0.08213        0.08213        0.08213        0.08213        0.08213        0.08213        0.08213        0.08213
   NSUBEDGELEXP              1              1              1              1              1              1              1              1              1              1              1              1              1              1              1              1              1              1              1              1              1              1              1              1              1              1              1

     STTHESATLW        0.01292        0.01292        0.01292        0.01292        0.01292        0.01292        0.01292        0.01292        0.01292        0.01292        0.01292        0.01292        0.01292        0.01292        0.01292        0.01292        0.01292        0.01292        0.01292        0.01292        0.01292        0.01292        0.01292        0.01292        0.01292        0.01292        0.01292
      STTHESATW      -0.065908      -0.065908      -0.065908      -0.065908      -0.065908      -0.065908      -0.065908      -0.065908      -0.065908      -0.065908      -0.065908      -0.065908      -0.065908      -0.065908      -0.065908      -0.065908      -0.065908      -0.065908      -0.065908      -0.065908      -0.065908      -0.065908      -0.065908      -0.065908      -0.065908      -0.065908      -0.065908
      STTHESATL      -0.091893      -0.091893      -0.091893      -0.091893      -0.091893      -0.091893      -0.091893      -0.091893      -0.091893      -0.091893      -0.091893      -0.091893      -0.091893      -0.091893      -0.091893      -0.091893      -0.091893      -0.091893      -0.091893      -0.091893      -0.091893      -0.091893      -0.091893      -0.091893      -0.091893      -0.091893      -0.091893
          PWALP              0              0              0              0              0              0              0              0              0              0              0              0              0              0              0              0              0              0              0              0              0              0              0              0              0              0              0
           ALPW         1.0825         1.0825         1.0825         1.0825         1.0825         1.0825         1.0825         1.0825         1.0825         1.0825         1.0825         1.0825         1.0825         1.0825         1.0825         1.0825         1.0825         1.0825         1.0825         1.0825         1.0825         1.0825         1.0825         1.0825         1.0825         1.0825         1.0825
           PWAX              0              0              0              0              0              0              0              0              0              0              0              0              0              0              0              0              0              0              0              0              0              0              0              0              0              0              0
           PLAX              0              0              0              0              0              0              0              0              0              0              0              0              0              0              0              0              0              0              0              0              0              0              0              0              0              0              0
          RJUND              0              0              0              0              0              0              0              0              0              0              0              0              0              0              0              0              0              0              0              0              0              0              0              0              0              0              0

          PLALP              0              0              0              0              0              0              0              0              0              0              0              0              0              0              0              0              0              0              0              0              0              0              0              0              0              0              0
          LVARO              0              0              0              0              0              0              0              0              0              0              0              0              0              0              0              0              0              0              0              0              0              0              0              0              0              0              0
            RSB              0              0              0              0              0              0              0              0              0              0              0              0              0              0              0              0              0              0              0              0              0              0              0              0              0              0              0
      PLTHESATB              0              0              0              0              0              0              0              0              0              0              0              0              0              0              0              0              0              0              0              0              0              0              0              0              0              0              0
            RSH              0              0              0              0              0              0              0              0              0              0              0              0              0              0              0              0              0              0              0              0              0              0              0              0              0              0              0
          PLWCF              0              0              0              0              0              0              0              0              0              0              0              0              0              0              0              0              0              0              0              0              0              0              0              0              0              0              0
      POTHESATB              0              0              0              0              0              0              0              0              0              0              0              0              0              0              0              0              0              0              0              0              0              0              0              0              0              0              0
        PBRGATD              4              4              4              4              4              4              4              4              4              4              4              4              4              4              4              4              4              4              4              4              4              4              4              4              4              4              4

           POA4              0              0              0              0              0              0              0              0              0              0              0              0              0              0              0              0              0              0              0              0              0              0              0              0              0              0              0
           POAX              3              3              3              3              3              3              3              3              3              3              3              3              3              3              3              3              3              3              3              3              3              3              3              3              3              3              3
          PLCFR              0              0              0              0              0              0              0              0              0              0              0              0              0              0              0              0              0              0              0              0              0              0              0              0              0              0              0
         ALP2L1         2.6817         2.6817         2.6817         2.6817         2.6817         2.6817         2.6817         2.6817         2.6817         2.6817         2.6817         2.6817         2.6817         2.6817         2.6817         2.6817         2.6817         2.6817         2.6817         2.6817         2.6817         2.6817         2.6817         2.6817         2.6817         2.6817         2.6817
       PLTHESAT              0              0              0              0              0              0              0              0              0              0              0              0              0              0              0              0              0              0              0              0              0              0              0              0              0              0              0
         TOXOVO     2.2404e-09     2.2404e-09     2.2404e-09     2.2404e-09     2.2404e-09     2.2404e-09     2.2404e-09     2.2404e-09     2.2404e-09     2.2404e-09     2.2404e-09     2.2404e-09     2.2404e-09     2.2404e-09     2.2404e-09     2.2404e-09     2.2404e-09     2.2404e-09     2.2404e-09     2.2404e-09     2.2404e-09     2.2404e-09     2.2404e-09     2.2404e-09     2.2404e-09     2.2404e-09     2.2404e-09
           PLA3              0              0              0              0              0              0              0              0              0              0              0              0              0              0              0              0              0              0              0              0              0              0              0              0              0              0              0
         RBULKO              0              0              0              0              0              0              0              0              0              0              0              0              0              0              0              0              0              0              0              0              0              0              0              0              0              0              0

          PORSB              0              0              0              0              0              0              0              0              0              0              0              0              0              0              0              0              0              0              0              0              0              0              0              0              0              0              0
           CGOV          1e-15          1e-15          1e-15          1e-15          1e-15          1e-15          1e-15          1e-15          1e-15          1e-15          1e-15          1e-15          1e-15          1e-15          1e-15          1e-15          1e-15          1e-15          1e-15          1e-15          1e-15          1e-15          1e-15          1e-15          1e-15          1e-15          1e-15
           PLRS              0              0              0              0              0              0              0              0              0              0              0              0              0              0              0              0              0              0              0              0              0              0              0              0              0              0              0
       CSRHBOTD            100            100            100            100            100            100            100            100            100            100            100            100            100            100            100            100            100            100            100            100            100            100            100            100            100            100            100
       SWJUNCAP              3              3              3              3              3              3              3              3              3              3              3              3              3              3              3              3              3              3              3              3              3              3              3              3              3              3              3
          IGOVD              0              0              0              0              0              0              0              0              0              0              0              0              0              0              0              0              0              0              0              0              0              0              0              0              0              0              0
        XJUNGAT         0.0001         0.0001         0.0001         0.0001         0.0001         0.0001         0.0001         0.0001         0.0001         0.0001         0.0001         0.0001         0.0001         0.0001         0.0001         0.0001         0.0001         0.0001         0.0001         0.0001         0.0001         0.0001         0.0001         0.0001         0.0001         0.0001         0.0001
   PLWFACNEFFAC              0              0              0              0              0              0              0              0              0              0              0              0              0              0              0              0              0              0              0              0              0              0              0              0              0              0              0

        POTHEMU            1.5            1.5            1.5            1.5            1.5            1.5            1.5            1.5            1.5            1.5            1.5            1.5            1.5            1.5            1.5            1.5            1.5            1.5            1.5            1.5            1.5            1.5            1.5            1.5            1.5            1.5            1.5
        POCGIDL              0              0              0              0              0              0              0              0              0              0              0              0              0              0              0              0              0              0              0              0              0              0              0              0              0              0              0
      PLNFAEDGE              0              0              0              0              0              0              0              0              0              0              0              0              0              0              0              0              0              0              0              0              0              0              0              0              0              0              0
     PWSTTHESAT              0              0              0              0              0              0              0              0              0              0              0              0              0              0              0              0              0              0              0              0              0              0              0              0              0              0              0
         PLWMUE              0              0              0              0              0              0              0              0              0              0              0              0              0              0              0              0              0              0              0              0              0              0              0              0              0              0              0
           FREV           1000           1000           1000           1000           1000           1000           1000           1000           1000           1000           1000           1000           1000           1000           1000           1000           1000           1000           1000           1000           1000           1000           1000           1000           1000           1000           1000
        DELVTAC              0              0              0              0              0              0              0              0              0              0              0              0              0              0              0              0              0              0              0              0              0              0              0              0              0              0              0
           POA1              1              1              1              1              1              1              1              1              1              1              1              1              1              1              1              1              1              1              1              1              1              1              1              1              1              1              1

          PWMUE              0              0              0              0              0              0              0              0              0              0              0              0              0              0              0              0              0              0              0              0              0              0              0              0              0              0              0
[...]
            R40            R41            R42            R43            R45            R46            R47            R48
            R49             R5            R50            R51            R52            R53            R54            R55
            R56            R57            R58             R6            R69             R7            R70            R71
            R72            R73            R74            R75            R79             R8             R9        XC10:R1
        XC11:R1        XC12:R1        XC13:R1        XC14:R1        XC16:R1        XC17:R1        XC18:R1         XC1:R1
        XC27:R1         XC2:R1        XC30:R1        XC31:R1        XC32:R1        XC33:R1        XC34:R1        XC35:R1
        XC36:R1        XC37:R1        XC38:R1        XC39:R1        XC40:R1        XC41:R1        XC44:R1        XC45:R1
        XC46:R1        XC47:R1        XC48:R1        XC49:R1         XC4:R1        XC50:R1        XC51:R1        XC52:R1
        XC53:R1        XC54:R1        XC59:R1         XC5:R1        XC65:R1        XC69:R1        XC73:R1        XC74:R1
        XC75:R1         XC8:R1
         model R level 1 (Resistor)R level 1 (Resistor)R level 1 (Resistor)R level 1 (Resistor)R level 1 (Resistor)R level 1 (Resistor)R level 1 (Resistor)
R level 1 (Resistor)R level 1 (Resistor)R level 1 (Resistor)R level 1 (Resistor)R level 1 (Resistor)R level 1 (Resistor)R level 1 (Resistor)R level 1 (Resistor)
R level 1 (Resistor)R level 1 (Resistor)R level 1 (Resistor)R level 1 (Resistor)R level 1 (Resistor)R level 1 (Resistor)R level 1 (Resistor)R level 1 (Resistor)
R level 1 (Resistor)R level 1 (Resistor)R level 1 (Resistor)R level 1 (Resistor)R level 1 (Resistor)R level 1 (Resistor)R level 1 (Resistor)R level 1 (Resistor)
R level 1 (Resistor)R level 1 (Resistor)R level 1 (Resistor)R level 1 (Resistor)R level 1 (Resistor)R level 1 (Resistor)R level 1 (Resistor)R level 1 (Resistor)
R level 1 (Resistor)R level 1 (Resistor)R level 1 (Resistor)R level 1 (Resistor)R level 1 (Resistor)R level 1 (Resistor)R level 1 (Resistor)R level 1 (Resistor)
R level 1 (Resistor)R level 1 (Resistor)R level 1 (Resistor)R level 1 (Resistor)R level 1 (Resistor)R level 1 (Resistor)R level 1 (Resistor)R level 1 (Resistor)
R level 1 (Resistor)R level 1 (Resistor)R level 1 (Resistor)R level 1 (Resistor)R level 1 (Resistor)R level 1 (Resistor)R level 1 (Resistor)R level 1 (Resistor)
R level 1 (Resistor)R level 1 (Resistor)R level 1 (Resistor)R level 1 (Resistor)R level 1 (Resistor)R level 1 (Resistor)R level 1 (Resistor)R level 1 (Resistor)
R level 1 (Resistor)R level 1 (Resistor)R level 1 (Resistor)R level 1 (Resistor)R level 1 (Resistor)R level 1 (Resistor)R level 1 (Resistor)R level 1 (Resistor)
R level 1 (Resistor)R level 1 (Resistor)R level 1 (Resistor)R level 1 (Resistor)R level 1 (Resistor)R level 1 (Resistor)R level 1 (Resistor)R level 1 (Resistor)
R level 1 (Resistor)R level 1 (Resistor)R level 1 (Resistor)R level 1 (Resistor)R level 1 (Resistor)R level 1 (Resistor)R level 1 (Resistor)R level 1 (Resistor)
R level 1 (Resistor)R level 1 (Resistor)R level 1 (Resistor)R level 1 (Resistor)R level 1 (Resistor)R level 1 (Resistor)R level 1 (Resistor)R level 1 (Resistor)
R level 1 (Resistor)R level 1 (Resistor)
            TC2              0              0              0              0              0              0              0
              0              0              0              0              0              0              0              0
              0              0              0              0              0              0              0              0
              0              0              0              0              0              0              0              0
              0              0              0              0              0              0              0              0
              0              0              0              0              0              0              0              0
              0              0              0              0              0              0              0              0
              0              0              0              0              0              0              0              0
              0              0              0              0              0              0              0              0
              0              0              0              0              0              0              0              0
              0              0              0              0              0              0              0              0
              0              0              0              0              0              0              0              0
              0              0              0              0              0              0              0              0
              0              0
            TC1              0              0              0              0              0              0              0
              0              0              0              0              0              0              0              0
              0              0              0              0              0              0              0              0
              0              0              0              0              0              0              0              0
              0              0              0              0              0              0              0              0
              0              0              0              0              0              0              0              0
              0              0              0              0              0              0              0              0
              0              0              0              0              0              0              0              0
              0              0              0              0              0              0              0              0
              0              0              0              0              0              0              0              0
              0              0              0              0              0              0              0              0
              0              0              0              0              0              0              0              0
              0              0              0              0              0              0              0              0
              0              0
              W          1e-05          1e-05          1e-05          1e-05          1e-05          1e-05          1e-05
          1e-05          1e-05          1e-05          1e-05          1e-05          1e-05          1e-05          1e-05
          1e-05          1e-05          1e-05          1e-05          1e-05          1e-05          1e-05          1e-05
          1e-05          1e-05          1e-05          1e-05          1e-05          1e-05          1e-05          1e-05
          1e-05          1e-05          1e-05          1e-05          1e-05          1e-05          1e-05          1e-05
          1e-05          1e-05          1e-05          1e-05          1e-05          1e-05          1e-05          1e-05
          1e-05          1e-05          1e-05          1e-05          1e-05          1e-05          1e-05          1e-05
          1e-05          1e-05          1e-05          1e-05          1e-05          1e-05          1e-05          1e-05
          1e-05          1e-05          1e-05          1e-05          1e-05          1e-05          1e-05          1e-05
          1e-05          1e-05          1e-05          1e-05          1e-05          1e-05          1e-05          1e-05
          1e-05          1e-05          1e-05          1e-05          1e-05          1e-05          1e-05          1e-05
          1e-05          1e-05          1e-05          1e-05          1e-05          1e-05          1e-05          1e-05
          1e-05          1e-05          1e-05          1e-05          1e-05          1e-05          1e-05          1e-05
          1e-05          1e-05
              L              0              0              0              0              0              0              0
              0              0              0              0              0              0              0              0
              0              0              0              0              0              0              0              0
              0              0              0              0              0              0              0              0
              0              0              0              0              0              0              0              0
              0              0              0              0              0              0              0              0
              0              0              0              0              0              0              0              0
              0              0              0              0              0              0              0              0
              0              0              0              0              0              0              0              0
              0              0              0              0              0              0              0              0
              0              0              0              0              0              0              0              0
              0              0              0              0              0              0              0              0
              0              0              0              0              0              0              0              0
              0              0
            TCE              0              0              0              0              0              0              0
              0              0              0              0              0              0              0              0
              0              0              0              0              0              0              0              0
              0              0              0              0              0              0              0              0
              0              0              0              0              0              0              0              0
              0              0              0              0              0              0              0              0
              0              0              0              0              0              0              0              0
              0              0              0              0              0              0              0              0
              0              0              0              0              0              0              0              0
              0              0              0              0              0              0              0              0
              0              0              0              0              0              0              0              0
              0              0              0              0              0              0              0              0
              0              0              0              0              0              0              0              0
              0              0
              M              1              1              1              1              1              1              1
              1              1              1              1              1              1              1              1
              1              1              1              1              1              1              1              1
              1              1              1              1              1              1              1              1
              1              1              1              1              1              1              1              1
              1              1              1              1              1              1              1              1
              1              1              1              1              1              1              1              1
              1              1              1              1              1              1              1              1
              1              1              1              1              1              1              1              1
              1              1              1              1              1              1              1              1
              1              1              1              1              1              1              1              1
              1              1              1              1              1              1              1              1
              1              1              1              1              1              1              1              1
              1              1
          DTEMP              0              0              0              0              0              0              0
              0              0              0              0              0              0              0              0
              0              0              0              0              0              0              0              0
              0              0              0              0              0              0              0              0
              0              0              0              0              0              0              0              0
              0              0              0              0              0              0              0              0
              0              0              0              0              0              0              0              0
              0              0              0              0              0              0              0              0
              0              0              0              0              0              0              0              0
              0              0              0              0              0              0              0              0
              0              0              0              0              0              0              0              0
              0              0              0              0              0              0              0              0
              0              0              0              0              0              0              0              0
              0              0
           TEMP             27             27             27             27             27             27             27
             27             27             27             27             27             27             27             27
             27             27             27             27             27             27             27             27
             27             27             27             27             27             27             27             27
             27             27             27             27             27             27             27             27
             27             27             27             27             27             27             27             27
             27             27             27             27             27             27             27             27
             27             27             27             27             27             27             27             27
             27             27             27             27             27             27             27             27
             27             27             27             27             27             27             27             27
             27             27             27             27             27             27             27             27
             27             27             27             27             27             27             27             27
             27             27             27             27             27             27             27             27
             27             27
              R            3.5         111000         111000          11000          11000         111000            3.5
            7.5            7.5          10000            3.5            7.5            7.5          10000          11000
          11000          11000          11000            3.5            3.5            7.5            7.5          10000
         111000         111000         111000          11000          11000          11000          11000            3.5
          11000          11000          11000          11000            3.5            7.5            7.5          10000
         111000          10000         111000          11000          11000          11000          11000          11000
          11000          11000          11000         111000            3.5            7.5            7.5            7.5
          10000         111000         111000          11000          11000            7.5         111000          0.055
          0.055          0.055          0.055          0.055          0.055          0.055          0.055          0.055
          0.055          0.055          0.055          0.055          0.055          0.055          0.055          0.055
          0.055          0.055          0.055          0.055          0.055          0.055          0.055          0.055
          0.055          0.055          0.055          0.055          0.055          0.055          0.055          0.055
          0.055          0.055          0.055          0.055          0.055          0.055          0.055          0.055
          0.055          0.055

------------------------------------------------------------

***** Solution Summary *****
	Number Successful Steps Taken:		1
	Number Failed Steps Attempted:		0
	Number Jacobians Evaluated:		7
	Number Linear Solves:			7
	Number Failed Linear Solves:		0
	Number Residual Evaluations:		8
	Number Nonlinear Convergence Failures:	0
	Total Residual Load Time:		0.000815153 seconds
	Total Jacobian Load Time:		8.89301e-05 seconds
	Total Linear Solution Time:		0.000294685 seconds


***** Total Simulation Solvers Run Time: 0.00930786 seconds
***** Total Elapsed Run Time:            0.052973 seconds
*****
***** End of Xyce(TM) Simulation
*****

Timing summary of 1 processor
                 Stats                   Count       CPU Time              Wall Time
---------------------------------------- ----- --------------------- ---------------------
Xyce                                         1        0.052 (100.0%)        0.054 (100.0%)
  Analysis                                   1        0.009 (17.64%)        0.009 (17.09%)
    DC Sweep                                 1        0.009 (17.63%)        0.009 (17.08%)
      Solve                                  1        0.001 ( 2.66%)        0.001 ( 2.67%)
        Residual                             8        0.001 ( 1.51%)        0.001 ( 1.50%)
        Jacobian                             7        0.000 ( 0.17%)        0.000 ( 0.17%)
        Linear Solve                         7        0.000 ( 0.54%)        0.000 ( 0.55%)
      Successful Step                        1        0.008 (14.85%)        0.008 (14.29%)
  Netlist Import                             1        0.038 (73.44%)        0.039 (72.28%)
    Parse Context                            1        0.012 (23.10%)        0.012 (22.25%)
    Distribute Devices                       1        0.025 (48.40%)        0.025 (46.59%)
    Verify Devices                           1        0.000 ( 0.00%)        0.000 ( 0.01%)
    Instantiate                              1        0.000 ( 0.62%)        0.001 ( 2.03%)
  Late Initialization                        1        0.003 ( 5.31%)        0.004 ( 6.93%)
    Global Indices                           1        0.000 ( 0.49%)        0.000 ( 0.50%)
  Setup Matrix Structure                     1        0.000 ( 0.76%)        0.000 ( 0.73%)

